Version 4
SHEET 1 880 948
WIRE -64 16 -64 0
WIRE -64 16 -112 16
WIRE -16 16 -64 16
WIRE 112 48 96 48
WIRE 208 48 192 48
WIRE -16 128 -16 96
WIRE 16 128 -16 128
WIRE 96 128 96 48
WIRE 96 160 96 128
WIRE 128 160 96 160
WIRE 208 176 208 48
WIRE 208 176 192 176
WIRE 256 176 208 176
WIRE 128 192 96 192
WIRE -112 224 -112 96
WIRE 16 224 -112 224
WIRE 96 224 96 192
WIRE -112 256 -112 224
WIRE -16 256 -16 128
WIRE -240 304 -256 304
WIRE -176 304 -240 304
WIRE 96 304 48 304
WIRE -64 352 -112 352
WIRE -16 352 -64 352
WIRE -176 512 -192 512
WIRE -64 512 -64 432
WIRE -64 512 -96 512
WIRE -976 560 -1072 560
WIRE -1072 624 -1072 560
WIRE -1056 624 -1072 624
WIRE -192 624 -192 512
WIRE -176 624 -192 624
WIRE -976 640 -976 560
WIRE -976 640 -992 640
WIRE -64 640 -64 512
WIRE -64 640 -112 640
WIRE -1104 656 -1104 560
WIRE -1056 656 -1104 656
WIRE -176 656 -192 656
WIRE -1104 672 -1104 656
WIRE -880 704 -880 656
WIRE -192 768 -192 656
WIRE -192 768 -208 768
FLAG -240 384 GRND
FLAG 96 304 GRND
FLAG 160 144 VCC
FLAG 160 208 VEE
FLAG -64 0 VCC
FLAG -336 304 FilterOutput
FLAG 320 176 Output
FLAG -784 608 FilterOutput
FLAG -1200 608 VCC
FLAG -880 704 0
FLAG -880 656 VEE
FLAG -1200 688 0
FLAG -1104 752 0
FLAG -1104 480 VCC
FLAG -1024 608 VCC
FLAG -1024 672 0
FLAG -976 560 GRND
FLAG -784 688 GRND
FLAG -144 608 VCC
FLAG -144 672 VEE
FLAG -288 768 VCC
FLAG -112 768 VEE
FLAG -608 704 0
FLAG -608 624 VCAData
FLAG -272 624 VCAData
SYMBOL OpAmps\\OP2177 160 112 R0
SYMATTR InstName U1
SYMBOL res 112 112 R90
WINDOW 0 0 56 VBottom 2
WINDOW 3 32 56 VTop 2
SYMATTR InstName R1
SYMATTR Value 10k
SYMBOL res 112 208 R90
WINDOW 0 0 56 VBottom 2
WINDOW 3 32 56 VTop 2
SYMATTR InstName R2
SYMATTR Value 10k
SYMBOL res 96 64 R270
WINDOW 0 32 56 VTop 2
WINDOW 3 0 56 VBottom 2
SYMATTR InstName R3
SYMATTR Value 200k
SYMBOL npn -176 256 R0
SYMATTR InstName Q1
SYMATTR Value 2N2222
SYMBOL npn 48 256 M0
SYMATTR InstName Q2
SYMATTR Value 2N2222
SYMBOL res 80 208 R0
SYMATTR InstName R4
SYMATTR Value 200k
SYMBOL res -32 0 R0
SYMATTR InstName R5
SYMATTR Value 100k
SYMBOL res -128 0 R0
SYMATTR InstName R6
SYMATTR Value 100k
SYMBOL res -80 336 R0
SYMATTR InstName R7
SYMATTR Value 10k
SYMBOL res -80 496 R90
WINDOW 0 0 56 VBottom 2
WINDOW 3 32 56 VTop 2
SYMATTR InstName R8
SYMATTR Value 33K
SYMBOL res -176 608 R90
WINDOW 0 0 56 VBottom 2
WINDOW 3 32 56 VTop 2
SYMATTR InstName R9
SYMATTR Value 200k
SYMBOL res -256 288 R0
SYMATTR InstName R10
SYMATTR Value 1k
SYMBOL res -240 288 R90
WINDOW 0 0 56 VBottom 2
WINDOW 3 32 56 VTop 2
SYMATTR InstName R11
SYMATTR Value 100k
SYMBOL cap 320 160 R90
WINDOW 0 0 32 VBottom 2
WINDOW 3 32 32 VTop 2
SYMATTR InstName C1
SYMATTR Value 40µ
SYMBOL voltage -1200 592 R0
WINDOW 123 0 0 Left 0
WINDOW 39 0 0 Left 0
SYMATTR InstName V1
SYMATTR Value 12
SYMBOL voltage -784 592 R0
WINDOW 3 24 152 Left 2
WINDOW 123 24 124 Left 2
WINDOW 39 0 0 Left 0
SYMATTR Value SINE(0 1 1)
SYMATTR Value2 AC 1
SYMATTR InstName V3
SYMBOL voltage -608 608 R0
WINDOW 123 0 0 Left 0
WINDOW 39 0 0 Left 0
SYMATTR InstName V4
SYMATTR Value PWL(0 1.3 20 5)
SYMBOL OpAmps\\OP2177 -1024 576 R0
SYMATTR InstName U3
SYMBOL res -1120 464 R0
SYMATTR InstName R12
SYMATTR Value 10K
SYMBOL res -1120 656 R0
SYMATTR InstName R13
SYMATTR Value 10K
SYMBOL OpAmps\\OP2177 -144 576 R0
SYMATTR InstName U2
SYMBOL res -304 784 R270
WINDOW 0 32 56 VTop 2
WINDOW 3 0 56 VBottom 2
SYMATTR InstName R14
SYMATTR Value 70k
SYMBOL res -208 784 R270
WINDOW 0 32 56 VTop 2
WINDOW 3 0 56 VBottom 2
SYMATTR InstName R15
SYMATTR Value 50k
TEXT -1008 800 Left 2 !.tran 20
