Version 4
SHEET 1 880 948
WIRE -64 16 -64 0
WIRE -64 16 -112 16
WIRE -16 16 -64 16
WIRE 112 48 96 48
WIRE 208 48 192 48
WIRE -16 128 -16 96
WIRE 16 128 -16 128
WIRE 96 128 96 48
WIRE 96 160 96 128
WIRE 128 160 96 160
WIRE 208 176 208 48
WIRE 208 176 192 176
WIRE 256 176 208 176
WIRE 128 192 96 192
WIRE -112 224 -112 96
WIRE 16 224 -112 224
WIRE 96 224 96 192
WIRE -112 256 -112 224
WIRE -16 256 -16 128
WIRE -240 304 -256 304
WIRE -176 304 -240 304
WIRE 96 304 48 304
WIRE -64 352 -112 352
WIRE -16 352 -64 352
WIRE -176 432 -192 432
WIRE -64 432 -96 432
WIRE -192 528 -192 432
WIRE -192 544 -192 528
WIRE -176 544 -192 544
WIRE -64 560 -64 432
WIRE -64 560 -112 560
WIRE -176 576 -192 576
WIRE -192 592 -192 576
WIRE -1024 864 -1024 816
FLAG -240 384 GRND
FLAG -192 592 GRND
FLAG 96 304 GRND
FLAG 160 144 VCC
FLAG -144 528 VCC
FLAG 160 208 VEE
FLAG -144 592 VEE
FLAG -64 0 VCC
FLAG -336 304 FilterOutput
FLAG -272 528 VCAData
FLAG 320 176 Output
FLAG -928 624 FilterOutput
FLAG -720 624 VCAData
FLAG -1184 624 VCC
FLAG -1056 704 VEE
FLAG -720 704 GRND
FLAG -928 704 GRND
FLAG -1056 624 GRND
FLAG -1184 704 GRND
FLAG -1024 864 0
FLAG -1024 816 GRND
SYMBOL OpAmps\\OP2177 160 112 R0
SYMATTR InstName U1
SYMBOL res 112 112 R90
WINDOW 0 0 56 VBottom 2
WINDOW 3 32 56 VTop 2
SYMATTR InstName R1
SYMATTR Value 10k
SYMBOL res 112 208 R90
WINDOW 0 0 56 VBottom 2
WINDOW 3 32 56 VTop 2
SYMATTR InstName R2
SYMATTR Value 10k
SYMBOL res 96 64 R270
WINDOW 0 32 56 VTop 2
WINDOW 3 0 56 VBottom 2
SYMATTR InstName R3
SYMATTR Value 200k
SYMBOL npn -176 256 R0
SYMATTR InstName Q1
SYMATTR Value 2N2222
SYMBOL npn 48 256 M0
SYMATTR InstName Q2
SYMATTR Value 2N2222
SYMBOL OpAmps\\OP2177 -144 496 R0
SYMATTR InstName U2
SYMBOL res 80 208 R0
SYMATTR InstName R4
SYMATTR Value 200k
SYMBOL res -32 0 R0
SYMATTR InstName R5
SYMATTR Value 100k
SYMBOL res -128 0 R0
SYMATTR InstName R6
SYMATTR Value 100k
SYMBOL res -80 336 R0
SYMATTR InstName R7
SYMATTR Value 10k
SYMBOL res -80 416 R90
WINDOW 0 0 56 VBottom 2
WINDOW 3 32 56 VTop 2
SYMATTR InstName R8
SYMATTR Value 33K
SYMBOL res -176 512 R90
WINDOW 0 0 56 VBottom 2
WINDOW 3 32 56 VTop 2
SYMATTR InstName R9
SYMATTR Value 200k
SYMBOL res -256 288 R0
SYMATTR InstName R10
SYMATTR Value 1k
SYMBOL res -240 288 R90
WINDOW 0 0 56 VBottom 2
WINDOW 3 32 56 VTop 2
SYMATTR InstName R11
SYMATTR Value 100k
SYMBOL cap 320 160 R90
WINDOW 0 0 32 VBottom 2
WINDOW 3 32 32 VTop 2
SYMATTR InstName C1
SYMATTR Value 22µ
SYMBOL voltage -1184 608 R0
WINDOW 123 0 0 Left 0
WINDOW 39 0 0 Left 0
SYMATTR InstName V1
SYMATTR Value 6
SYMBOL voltage -1056 608 R0
WINDOW 123 0 0 Left 0
WINDOW 39 0 0 Left 0
SYMATTR InstName V2
SYMATTR Value 6
SYMBOL voltage -928 608 R0
WINDOW 3 24 152 Left 2
WINDOW 123 24 124 Left 2
WINDOW 39 0 0 Left 0
SYMATTR Value SINE(0 1 1)
SYMATTR Value2 AC 1
SYMATTR InstName V3
SYMBOL voltage -720 608 R0
WINDOW 123 0 0 Left 0
WINDOW 39 0 0 Left 0
SYMATTR InstName V4
SYMATTR Value PWL(0 2.5 20 5)
TEXT -1216 888 Left 2 !.tran 20
